Version 4
SHEET 1 1900 932
WIRE 1184 192 1072 192
WIRE 1072 224 1072 192
WIRE 1184 336 1184 192
WIRE 1104 384 656 384
WIRE 1424 400 1264 400
WIRE 1104 416 768 416
WIRE 1424 432 1264 432
WIRE 1104 448 864 448
WIRE 1184 512 1184 496
WIRE 656 576 656 384
WIRE 768 576 768 416
WIRE 864 576 864 448
WIRE 1184 720 1184 512
WIRE 1216 720 1184 720
WIRE 1216 752 1216 720
WIRE 1216 752 1152 752
WIRE 1152 832 1152 752
FLAG 656 656 0
FLAG 768 656 0
FLAG 864 656 0
FLAG 1152 912 0
FLAG 1072 304 0
SYMBOL AUTO3 1248 432 R0
SYMATTR InstName X1
SYMBOL voltage 1152 816 R0
WINDOW 123 0 0 Left 2
WINDOW 39 0 0 Left 2
SYMATTR InstName V1
SYMATTR Value PULSE(5 0 0 1n 1n 0.1m 11m 2)
SYMBOL voltage 656 560 R0
WINDOW 123 0 0 Left 2
WINDOW 39 0 0 Left 2
SYMATTR InstName V2
SYMATTR Value PULSE(0 5 0 1n 1n 1m 4m)
SYMBOL voltage 768 560 R0
WINDOW 123 0 0 Left 2
WINDOW 39 0 0 Left 2
SYMATTR InstName V3
SYMATTR Value 5
SYMBOL voltage 864 560 R0
WINDOW 123 0 0 Left 2
WINDOW 39 0 0 Left 2
SYMATTR InstName V4
SYMATTR Value 5
SYMBOL voltage 1072 208 R0
WINDOW 123 0 0 Left 2
WINDOW 39 0 0 Left 2
SYMATTR InstName V5
SYMATTR Value PULSE(0 5 0.5m 1n 1n 1m 2m)
TEXT 336 48 Left 2 !.inc 74hct.lib
TEXT 336 680 Left 2 !.tran 14m
