Version 4
SHEET 1 3988 1572
WIRE 1904 -688 1904 -768
WIRE 2208 -688 2208 -768
WIRE 1888 -544 1888 -576
WIRE 1888 -544 1840 -544
WIRE 2192 -544 2192 -576
WIRE 2192 -544 2160 -544
WIRE 1840 -496 1840 -544
WIRE 2160 -496 2160 -544
WIRE 1840 -320 1840 -384
WIRE 2160 -320 2160 -384
WIRE 2224 -208 2224 -576
WIRE 2224 -208 2160 -208
WIRE 1840 -160 1840 -208
WIRE 1904 -160 1840 -160
WIRE 1920 -160 1920 -576
WIRE 1920 -160 1904 -160
WIRE 1600 -112 1600 -224
WIRE 1904 -112 1904 -160
WIRE 2224 -112 2224 -208
WIRE 1872 64 1872 0
WIRE 1872 64 1792 64
WIRE 1632 96 1632 0
WIRE 1936 96 1936 0
WIRE 1936 96 1632 96
WIRE 2256 96 2256 0
WIRE 2256 96 1936 96
WIRE 2672 96 2256 96
WIRE 1568 144 1568 0
WIRE 1568 144 1072 144
WIRE 2192 144 2192 0
WIRE 2192 144 1568 144
WIRE 1904 208 1904 0
WIRE 1904 208 1392 208
WIRE 1792 240 1792 64
WIRE 2224 240 2224 0
WIRE 2224 240 1792 240
WIRE 1040 272 976 272
WIRE 1936 288 1904 288
WIRE 1936 320 1936 288
WIRE 2048 320 1936 320
WIRE 1040 336 1040 272
WIRE 1120 336 1040 336
WIRE 2256 336 2208 336
WIRE 1344 352 1280 352
WIRE 2048 352 1904 352
WIRE 1120 368 1008 368
WIRE 2256 432 2256 336
WIRE 2368 432 2256 432
WIRE 1344 480 1344 352
WIRE 1440 480 1344 480
WIRE 2048 496 1968 496
WIRE 2256 512 2256 432
WIRE 2256 512 2208 512
WIRE 2048 528 1904 528
WIRE 1072 560 1072 144
WIRE 1120 560 1072 560
WIRE 1792 560 1792 240
WIRE 1968 560 1968 496
WIRE 1968 560 1792 560
WIRE 1344 576 1344 480
WIRE 1344 576 1280 576
WIRE 2368 576 2368 432
WIRE 2368 576 2192 576
WIRE 1120 592 1008 592
WIRE 1600 592 1600 0
WIRE 1952 592 1600 592
WIRE 2368 640 2368 576
WIRE 2416 640 2368 640
WIRE 560 656 448 656
WIRE 832 656 560 656
WIRE 1440 656 1440 480
WIRE 1744 656 1440 656
WIRE 2672 656 2672 96
WIRE 2672 656 2544 656
WIRE 2704 656 2672 656
WIRE 1072 672 1072 560
WIRE 1072 672 960 672
WIRE 1968 672 1968 560
WIRE 1968 672 1872 672
WIRE 2416 672 2336 672
WIRE 832 688 752 688
WIRE 1744 688 1648 688
WIRE 2592 688 2544 688
WIRE 1008 704 960 704
WIRE 1952 704 1952 592
WIRE 1952 704 1872 704
WIRE 2192 704 2192 576
WIRE 2224 704 2192 704
WIRE 2416 704 2336 704
WIRE 560 720 560 656
WIRE 592 720 560 720
WIRE 832 720 704 720
WIRE 1440 720 1440 656
WIRE 1456 720 1440 720
WIRE 1744 720 1568 720
WIRE 2592 720 2592 688
WIRE 1008 736 1008 704
WIRE 1392 736 1392 208
WIRE 1392 736 1008 736
WIRE 2480 848 2480 784
WIRE 1808 864 1808 800
WIRE 896 880 896 800
FLAG 896 880 CLR
IOPIN 896 880 In
FLAG 1808 864 CLR
IOPIN 1808 864 In
FLAG 752 688 C
IOPIN 752 688 In
FLAG 1648 688 C
IOPIN 1648 688 In
FLAG 2336 672 C
IOPIN 2336 672 In
FLAG 2704 656 QF
IOPIN 2704 656 Out
FLAG 2592 720 NQF
IOPIN 2592 720 Out
FLAG 1008 592 QF
IOPIN 1008 592 In
FLAG 1008 368 NQF
IOPIN 1008 368 In
FLAG 976 272 QF
IOPIN 976 272 In
FLAG 2480 848 CLR
IOPIN 2480 848 In
FLAG 1904 528 QF
IOPIN 1904 528 In
FLAG 1904 352 NQF
IOPIN 1904 352 In
FLAG 1904 288 NQF
IOPIN 1904 288 In
FLAG 448 656 DATA
IOPIN 448 656 In
FLAG 1600 -224 Y0
IOPIN 1600 -224 Out
FLAG 1904 -768 Y1
IOPIN 1904 -768 Out
FLAG 2208 -768 Y2
IOPIN 2208 -768 Out
SYMBOL RS-74-PRE 912 688 R0
SYMATTR InstName X1
SYMBOL RS-74 2496 672 R0
SYMATTR InstName X3
SYMBOL 74hct\\74hct\\74HCT\\74HCT\\74hct04 640 656 R0
SYMATTR InstName U2
SYMBOL RS-74 1824 688 R0
SYMATTR InstName X2
SYMBOL 74hct\\74hct\\74HCT\\74HCT\\74hct125 1200 512 R0
SYMATTR InstName U1
SYMBOL 74hct\\74hct\\74HCT\\74HCT\\74hct125 1200 288 R0
SYMATTR InstName U3
SYMBOL 74hct\\74hct\\74HCT\\74HCT\\74hct04 1504 656 R0
SYMATTR InstName U4
SYMBOL 74hct\\74hct\\74HCT\\74HCT\\74hct125 2128 448 R0
SYMATTR InstName U5
SYMBOL 74hct\\74hct\\74HCT\\74HCT\\74hct125 2128 272 R0
SYMATTR InstName U6
SYMBOL 74hct\\74hct\\74HCT\\74HCT\\74hct04 2272 640 R0
SYMATTR InstName U7
SYMBOL 74hct\\74hct\\74HCT\\74HCT\\74hct11 1520 -48 R270
SYMATTR InstName U8
SYMBOL 74hct\\74hct\\74HCT\\74HCT\\74hct11 1824 -48 R270
SYMATTR InstName U9
SYMBOL 74hct\\74hct\\74HCT\\74HCT\\74hct11 2144 -48 R270
SYMATTR InstName U10
SYMBOL 74hct\\74hct\\74HCT\\74HCT\\74hct04 1776 -256 R270
SYMATTR InstName U11
SYMBOL 74hct\\74hct\\74HCT\\74HCT\\74hct04 1776 -432 R270
SYMATTR InstName U12
SYMBOL 74hct\\74hct\\74HCT\\74HCT\\74hct08 1840 -624 R270
SYMATTR InstName U13
SYMBOL 74hct\\74hct\\74HCT\\74HCT\\74hct04 2096 -256 R270
SYMATTR InstName U14
SYMBOL 74hct\\74hct\\74HCT\\74HCT\\74hct04 2096 -432 R270
SYMATTR InstName U15
SYMBOL 74hct\\74hct\\74HCT\\74HCT\\74hct08 2144 -624 R270
SYMATTR InstName U16
TEXT 472 472 Left 2 !.inc 74hct.lib
TEXT 408 1384 Left 2 !.tran 0 9m 0 1m
