Version 4
SHEET 1 880 680
WIRE 336 -288 -160 -288
WIRE -160 -224 -160 -288
WIRE 336 -80 336 -288
WIRE 416 -80 336 -80
WIRE 752 -80 608 -80
WIRE 416 -48 -160 -48
WIRE 752 -48 608 -48
WIRE 416 -16 128 -16
WIRE 752 -16 608 -16
WIRE -160 112 -160 -48
WIRE 128 112 128 -16
FLAG 128 192 0
FLAG -160 192 0
FLAG -160 -144 0
SYMBOL voltage 128 96 R0
WINDOW 123 0 0 Left 2
WINDOW 39 0 0 Left 2
SYMATTR InstName V1
SYMATTR Value PULSE(5 0 0 1n 1n 0.1m 2m 1)
SYMBOL voltage -160 96 R0
WINDOW 123 0 0 Left 2
WINDOW 39 0 0 Left 2
SYMATTR InstName V2
SYMATTR Value PULSE(0 5 0.5m 1n 1n 0.5m 1m)
SYMBOL voltage -160 -240 R0
WINDOW 123 0 0 Left 2
WINDOW 39 0 0 Left 2
SYMATTR InstName V3
SYMATTR Value PULSE(0 5 3m 1n 1n 4m 9m)
SYMBOL detector_seq 544 -48 R0
SYMATTR InstName X1
TEXT -194 216 Left 2 !.tran 8m
