Version 4
SHEET 1 1456 680
WIRE 672 112 672 0
WIRE 720 112 672 112
WIRE 528 128 480 128
WIRE 928 128 832 128
WIRE 720 144 640 144
WIRE 928 144 928 128
WIRE 1056 144 928 144
WIRE 528 160 480 160
WIRE 1056 176 992 176
WIRE 1376 176 1248 176
WIRE 80 192 -160 192
WIRE -160 208 -160 192
WIRE -160 208 -256 208
WIRE 480 208 480 160
WIRE 480 208 192 208
WIRE 992 208 992 176
WIRE 992 208 960 208
WIRE 1056 208 992 208
WIRE -160 224 -160 208
WIRE -112 224 -160 224
WIRE 48 224 0 224
WIRE 80 224 48 224
WIRE 992 240 992 208
WIRE 1056 240 992 240
WIRE 1360 240 1248 240
WIRE 480 256 480 208
WIRE 528 256 480 256
WIRE 848 272 640 272
WIRE 1056 272 992 272
WIRE 528 288 480 288
WIRE 848 288 848 272
WIRE 992 288 992 272
WIRE 992 288 848 288
WIRE 48 352 48 288
FLAG 960 208 0
FLAG 48 432 0
FLAG -256 208 C
IOPIN -256 208 In
FLAG 480 128 S
IOPIN 480 128 In
FLAG 480 288 R
IOPIN 480 288 In
FLAG 1360 240 NQ
IOPIN 1360 240 Out
FLAG 1376 176 Q
IOPIN 1376 176 Out
FLAG 672 0 PRE
IOPIN 672 0 In
SYMBOL 74hct\\74hct\\74HCT\\74HCT\\74hct112.1 1152 80 R0
SYMATTR InstName U1
SYMBOL 74hct\\74hct\\74HCT\\74HCT\\74hct08 128 144 R0
SYMATTR InstName U2
SYMBOL 74hct\\74hct\\74HCT\\74HCT\\74hct04 -64 160 R0
SYMATTR InstName U3
SYMATTR SpiceLine VCC=5  SPEED=1.0  TRIPDT=1n tTLH=100n
SYMBOL cap 32 224 R0
SYMATTR InstName C1
SYMATTR Value 100p
SYMBOL res 32 336 R0
SYMATTR InstName R1
SYMATTR Value 100k
SYMBOL 74hct\\74hct\\74HCT\\74HCT\\74hct00 576 80 R0
SYMATTR InstName U4
SYMBOL 74hct\\74hct\\74HCT\\74HCT\\74hct00 576 208 R0
SYMATTR InstName U5
SYMBOL 74hct\\74hct\\74HCT\\74HCT\\74hct08 768 64 R0
SYMATTR InstName U6
TEXT 448 -160 Left 2 !.inc 74hct.lib
