Version 4
SHEET 1 1588 700
WIRE 352 160 304 160
WIRE 880 176 464 176
WIRE 352 192 304 192
WIRE 880 208 816 208
WIRE 1200 208 1072 208
WIRE -96 224 -336 224
WIRE -336 240 -336 224
WIRE -336 240 -432 240
WIRE 304 240 304 192
WIRE 304 240 16 240
WIRE 816 240 816 208
WIRE 816 240 784 240
WIRE 880 240 816 240
WIRE -336 256 -336 240
WIRE -288 256 -336 256
WIRE -128 256 -176 256
WIRE -96 256 -128 256
WIRE 816 272 816 240
WIRE 880 272 816 272
WIRE 1184 272 1072 272
WIRE 304 288 304 240
WIRE 352 288 304 288
WIRE 640 304 464 304
WIRE 880 304 816 304
WIRE 352 320 304 320
WIRE 816 320 816 304
WIRE 816 320 752 320
WIRE 640 336 528 336
WIRE -128 384 -128 320
WIRE 528 592 528 336
FLAG 784 240 0
FLAG -128 464 0
FLAG -432 240 C
IOPIN -432 240 In
FLAG 304 160 S
IOPIN 304 160 In
FLAG 304 320 R
IOPIN 304 320 In
FLAG 528 592 CLR
IOPIN 528 592 In
FLAG 1184 272 NQ
IOPIN 1184 272 Out
FLAG 1200 208 Q
IOPIN 1200 208 Out
SYMBOL 74hct\\74hct\\74HCT\\74HCT\\74hct112.1 976 112 R0
SYMATTR InstName U1
SYMBOL 74hct\\74hct\\74HCT\\74HCT\\74hct08 -48 176 R0
SYMATTR InstName U5
SYMBOL 74hct\\74hct\\74HCT\\74HCT\\74hct04 -240 192 R0
SYMATTR InstName U6
SYMATTR SpiceLine VCC=5  SPEED=1.0  TRIPDT=1n tTLH=100n
SYMBOL cap -144 256 R0
SYMATTR InstName C1
SYMATTR Value 100p
SYMBOL res -144 368 R0
SYMATTR InstName R1
SYMATTR Value 100k
SYMBOL 74hct\\74hct\\74HCT\\74HCT\\74hct00 400 112 R0
SYMATTR InstName U2
SYMBOL 74hct\\74hct\\74HCT\\74HCT\\74hct00 400 240 R0
SYMATTR InstName U3
SYMBOL 74hct\\74hct\\74HCT\\74HCT\\74hct08 688 256 R0
SYMATTR InstName U8
TEXT -736 -160 Left 2 !.inc 74hct.lib
TEXT -736 408 Left 2 !.tran 8m
TEXT 272 -128 Left 2 !.inc 74hct.lib
